*Heading
** Job name: Demo_Bracket  Model name: Demo
** A small demonstration model shipped with the INP editor.
*Preprint, echo=NO, model=NO, history=NO, contact=NO
**
** PARTS
**
*Part, name=Bracket
*Node
      1,       0.0000,       0.0000,       0.0000
      2,      10.0000,       0.0000,       0.0000
      3,      20.0000,       0.0000,       0.0000
      4,      30.0000,       0.0000,       0.0000
      5,      40.0000,       0.0000,       0.0000
      6,      50.0000,       0.0000,       0.0000
      7,      60.0000,       0.0000,       0.0000
      8,      70.0000,       0.0000,       0.0000
      9,      80.0000,       0.0000,       0.0000
     10,       0.0000,       5.0000,       0.0000
     11,      10.0000,       5.0000,       0.0000
     12,      20.0000,       5.0000,       0.0000
     13,      30.0000,       5.0000,       0.0000
     14,      40.0000,       5.0000,       0.0000
     15,      50.0000,       5.0000,       0.0000
     16,      60.0000,       5.0000,       0.0000
     17,      70.0000,       5.0000,       0.0000
     18,      80.0000,       5.0000,       0.0000
     19,       0.0000,      10.0000,       0.0000
     20,      10.0000,      10.0000,       0.0000
** ... 160 like lines cut
*Element, type=C3D8R
     1,      1,      2,     11,     10,     46,     47,     56,     55
     2,      2,      3,     12,     11,     47,     48,     57,     56
     3,      3,      4,     13,     12,     48,     49,     58,     57
     4,      4,      5,     14,     13,     49,     50,     59,     58
     5,      5,      6,     15,     14,     50,     51,     60,     59
     6,      6,      7,     16,     15,     51,     52,     61,     60
     7,      7,      8,     17,     16,     52,     53,     62,     61
     8,      8,      9,     18,     17,     53,     54,     63,     62
     9,     10,     11,     20,     19,     55,     56,     65,     64
    10,     11,     12,     21,     20,     56,     57,     66,     65
    11,     12,     13,     22,     21,     57,     58,     67,     66
    12,     13,     14,     23,     22,     58,     59,     68,     67
    13,     14,     15,     24,     23,     59,     60,     69,     68
    14,     15,     16,     25,     24,     60,     61,     70,     69
    15,     16,     17,     26,     25,     61,     62,     71,     70
    16,     17,     18,     27,     26,     62,     63,     72,     71
    17,     19,     20,     29,     28,     64,     65,     74,     73
    18,     20,     21,     30,     29,     65,     66,     75,     74
    19,     21,     22,     31,     30,     66,     67,     76,     75
    20,     22,     23,     32,     31,     67,     68,     77,     76
** ... 76 like lines cut
*Nset, nset=Set-All, generate
      1,     180,       1
*Elset, elset=Set-All, generate
      1,      96,       1
*Nset, nset=Fixed_End
     1,     10,     19,     28,     37,     46,     55,     64,     73,     82,     91,    100,    109,    118,    127,    136,
   145,    154,    163,    172
*Nset, nset=Loaded_End
     9,     18,     27,     36,     45,     54,     63,     72,     81,     90,     99,    108,    117,    126,    135,    144,
   153,    162,    171,    180
*Elset, elset=Top_Elements
    65,     66,     67,     68,     69,     70,     71,     72,     73,     74,     75,     76,     77,     78,     79,     80,
    81,     82,     83,     84,     85,     86,     87,     88,     89,     90,     91,     92,     93,     94,     95,     96
*Surface, type=ELEMENT, name=Top_Surface
Top_Elements, S6
** Section: Steel_Section
*Solid Section, elset=Set-All, material=Steel
,
*End Part
**  
*Part, name=Cover_Plate
*Node
      1,       0.0000,       0.0000,       0.0000
      2,      20.0000,       0.0000,       0.0000
      3,      40.0000,       0.0000,       0.0000
      4,      60.0000,       0.0000,       0.0000
      5,      80.0000,       0.0000,       0.0000
      6,       0.0000,      10.0000,       0.0000
      7,      20.0000,      10.0000,       0.0000
      8,      40.0000,      10.0000,       0.0000
      9,      60.0000,      10.0000,       0.0000
     10,      80.0000,      10.0000,       0.0000
     11,       0.0000,      20.0000,       0.0000
     12,      20.0000,      20.0000,       0.0000
     13,      40.0000,      20.0000,       0.0000
     14,      60.0000,      20.0000,       0.0000
     15,      80.0000,      20.0000,       0.0000
*Element, type=S4R
     1,      1,      2,      7,      6
     2,      2,      3,      8,      7
     3,      3,      4,      9,      8
     4,      4,      5,     10,      9
     5,      6,      7,     12,     11
     6,      7,      8,     13,     12
     7,      8,      9,     14,     13
     8,      9,     10,     15,     14
*Nset, nset=Plate_All, generate
      1,      15,       1
*Elset, elset=Plate_All, generate
      1,       8,       1
** Section: Plate_Section
*Shell Section, elset=Plate_All, material=Aluminium
2., 5
*End Part
**
** ASSEMBLY
**
*Assembly, name=Assembly
**  
*Instance, name=Bracket-1, part=Bracket
*End Instance
**  
*Instance, name=Cover_Plate-1, part=Cover_Plate
          0.,          26.,           0.
          0.,          26.,           0.,          1.,          26.,           0.,         -12.
*End Instance
**  
*Nset, nset=Fixed_End, instance=Bracket-1
     1,     10,     19,     28,     37,     46,     55,     64,     73,     82,     91,    100,    109,    118,    127,    136,
   145,    154,    163,    172
*Nset, nset=Loaded_End, instance=Bracket-1
     9,     18,     27,     36,     45,     54,     63,     72,     81,     90,     99,    108,    117,    126,    135,    144,
   153,    162,    171,    180
*Elset, elset=Top_Elements, instance=Bracket-1
    65,     66,     67,     68,     69,     70,     71,     72,     73,     74,     75,     76,     77,     78,     79,     80,
    81,     82,     83,     84,     85,     86,     87,     88,     89,     90,     91,     92,     93,     94,     95,     96
*Surface, type=ELEMENT, name=Bracket_Top
Top_Elements, S6
*End Assembly
** 
** MATERIALS
** 
*Material, name=Steel
*Density
7.85e-09,
*Elastic
210000., 0.3
*Plastic
 250., 0.
 420., 0.15
*Material, name=Aluminium
*Density
2.7e-09,
*Elastic
 70000., 0.33
** 
** BOUNDARY CONDITIONS
** 
** Name: BC_Encastre Type: Symmetry/Antisymmetry/Encastre
*Boundary
Fixed_End, ENCASTRE
** ----------------------------------------------------------------
** 
** STEP: Load_Step
** 
*Step, name=Load_Step, nlgeom=YES, inc=100
*Static
0.1, 1., 1e-05, 1.
** 
** LOADS
** 
** Name: Tip_Load   Type: Concentrated force
*Cload
Loaded_End, 2, -25.
** 
** OUTPUT REQUESTS
** 
*Restart, write, frequency=0
** 
** FIELD OUTPUT: F-Output-1
** 
*Output, field, variable=PRESELECT
** 
** HISTORY OUTPUT: H-Output-1
** 
*Output, history, variable=PRESELECT
*End Step
